9
name:     Nickel cyantate
Ni    0          0          0.0
C    -1.870      0.0        0.0   
C     1.870      0.0        0.0   
C     0.0       -1.870      0.0   
C     0.0        1.870      0.0   
N    -2.994      0.0        0.0   
N     2.994      0.0        0.0   
N     0.0       -2.994      0.0   
N     0.0        2.994      0.0   
