22
Hg1_amp.xyz
O         -3.71800       -2.00000       -1.24900
P         -3.91000       -1.59800        0.29000
O         -5.35700       -1.58600        0.60000
O         -3.02000       -2.44600        1.11000
O         -3.35200       -0.12200        0.45900
C         -1.95500        0.01100        0.30500
C         -1.48700        1.40500        0.63700
O         -0.11000        1.31500        1.03100
C         -1.52300        2.38600       -0.51700
O         -1.77700        3.69900       -0.00600
C         -0.15400        2.19400       -1.16100
C          0.73400        1.75700        0.00100
N          1.68600        0.62300       -0.15600
C          1.54600       -0.35900       -1.10700
O          0.64900       -0.39000       -1.93000
N          2.52400       -1.32100       -1.06300
C          3.58700       -1.40200       -0.18100
O          4.40700       -2.31400       -0.22400
C          3.65500       -0.33500        0.78500
C          4.86400       -0.10800        1.62800
C          2.71300        0.59300        0.75000
Hg         5.74339       -3.80032       -0.29408
